
---------- Begin Simulation Statistics ----------
simSeconds                                   0.000522                       # Number of seconds simulated (Second)
simTicks                                    522416000                       # Number of ticks simulated (Tick)
finalTick                                   522416000                       # Number of ticks from beginning of simulation (restored from checkpoints and never reset) (Tick)
simFreq                                  1000000000000                       # The number of ticks per simulated second ((Tick/Second))
hostSeconds                                      2.78                       # Real time elapsed on the host (Second)
hostTickRate                                188050722                       # The number of ticks simulated per host second (ticks/s) ((Tick/Second))
hostMemory                                    2366732                       # Number of bytes of host memory used (Byte)
simInsts                                       741307                       # Number of instructions simulated (Count)
simOps                                         787286                       # Number of ops (including micro ops) simulated (Count)
hostInstRate                                   266820                       # Simulator instruction rate (inst/s) ((Count/Second))
hostOpRate                                     283369                       # Simulator op (including micro ops) rate (op/s) ((Count/Second))
system.clk_domain.clock                          1000                       # Clock period in ticks (Tick)
system.clk_domain.voltage_domain.voltage            1                       # Voltage in Volts (Volt)
system.cpu.numCycles                           522417                       # Number of cpu cycles simulated (Cycle)
system.cpu.cpi                               0.704724                       # CPI: cycles per instruction (core level) ((Cycle/Count))
system.cpu.ipc                               1.418995                       # IPC: instructions per cycle (core level) ((Count/Cycle))
system.cpu.numWorkItemsStarted                      0                       # Number of work items this cpu started (Count)
system.cpu.numWorkItemsCompleted                    0                       # Number of work items this cpu completed (Count)
system.cpu.instsAdded                          860352                       # Number of instructions added to the IQ (excludes non-spec) (Count)
system.cpu.nonSpecInstsAdded                      194                       # Number of non-speculative instructions added to the IQ (Count)
system.cpu.instsIssued                         800780                       # Number of instructions issued (Count)
system.cpu.squashedInstsIssued                   6620                       # Number of squashed instructions issued (Count)
system.cpu.squashedInstsExamined                73259                       # Number of squashed instructions iterated over during squash; mainly for profiling (Count)
system.cpu.squashedOperandsExamined            102392                       # Number of squashed operands that are examined and possibly removed from graph (Count)
system.cpu.squashedNonSpecRemoved                 120                       # Number of squashed non-spec instructions that were removed (Count)
system.cpu.numIssuedDist::samples              514237                       # Number of insts issued each cycle (Count)
system.cpu.numIssuedDist::mean               1.557220                       # Number of insts issued each cycle (Count)
system.cpu.numIssuedDist::stdev              1.486459                       # Number of insts issued each cycle (Count)
system.cpu.numIssuedDist::underflows                0      0.00%      0.00% # Number of insts issued each cycle (Count)
system.cpu.numIssuedDist::0                    124516     24.21%     24.21% # Number of insts issued each cycle (Count)
system.cpu.numIssuedDist::1                    129731     25.23%     49.44% # Number of insts issued each cycle (Count)
system.cpu.numIssuedDist::2                    175893     34.20%     83.65% # Number of insts issued each cycle (Count)
system.cpu.numIssuedDist::3                     58322     11.34%     94.99% # Number of insts issued each cycle (Count)
system.cpu.numIssuedDist::4                     17475      3.40%     98.39% # Number of insts issued each cycle (Count)
system.cpu.numIssuedDist::5                      2562      0.50%     98.88% # Number of insts issued each cycle (Count)
system.cpu.numIssuedDist::6                       536      0.10%     98.99% # Number of insts issued each cycle (Count)
system.cpu.numIssuedDist::7                        87      0.02%     99.01% # Number of insts issued each cycle (Count)
system.cpu.numIssuedDist::8                       156      0.03%     99.04% # Number of insts issued each cycle (Count)
system.cpu.numIssuedDist::9                       184      0.04%     99.07% # Number of insts issued each cycle (Count)
system.cpu.numIssuedDist::10                      747      0.15%     99.22% # Number of insts issued each cycle (Count)
system.cpu.numIssuedDist::11                      948      0.18%     99.40% # Number of insts issued each cycle (Count)
system.cpu.numIssuedDist::12                     3080      0.60%    100.00% # Number of insts issued each cycle (Count)
system.cpu.numIssuedDist::overflows                 0      0.00%    100.00% # Number of insts issued each cycle (Count)
system.cpu.numIssuedDist::min_value                 0                       # Number of insts issued each cycle (Count)
system.cpu.numIssuedDist::max_value                12                       # Number of insts issued each cycle (Count)
system.cpu.numIssuedDist::total                514237                       # Number of insts issued each cycle (Count)
system.cpu.statFuBusy::No_OpClass                   0      0.00%      0.00% # attempts to use FU when none available (Count)
system.cpu.statFuBusy::IntAlu                  181678     62.65%     62.65% # attempts to use FU when none available (Count)
system.cpu.statFuBusy::IntMult                  30304     10.45%     73.10% # attempts to use FU when none available (Count)
system.cpu.statFuBusy::IntDiv                   43631     15.05%     88.14% # attempts to use FU when none available (Count)
system.cpu.statFuBusy::FloatAdd                     0      0.00%     88.14% # attempts to use FU when none available (Count)
system.cpu.statFuBusy::FloatCmp                     0      0.00%     88.14% # attempts to use FU when none available (Count)
system.cpu.statFuBusy::FloatCvt                     0      0.00%     88.14% # attempts to use FU when none available (Count)
system.cpu.statFuBusy::FloatMult                    4      0.00%     88.15% # attempts to use FU when none available (Count)
system.cpu.statFuBusy::FloatMultAcc                14      0.00%     88.15% # attempts to use FU when none available (Count)
system.cpu.statFuBusy::FloatDiv                     0      0.00%     88.15% # attempts to use FU when none available (Count)
system.cpu.statFuBusy::FloatMisc                    0      0.00%     88.15% # attempts to use FU when none available (Count)
system.cpu.statFuBusy::FloatSqrt                    0      0.00%     88.15% # attempts to use FU when none available (Count)
system.cpu.statFuBusy::SimdAdd                   8933      3.08%     91.23% # attempts to use FU when none available (Count)
system.cpu.statFuBusy::SimdAddAcc                   0      0.00%     91.23% # attempts to use FU when none available (Count)
system.cpu.statFuBusy::SimdAlu                    194      0.07%     91.30% # attempts to use FU when none available (Count)
system.cpu.statFuBusy::SimdCmp                   4329      1.49%     92.79% # attempts to use FU when none available (Count)
system.cpu.statFuBusy::SimdCvt                      0      0.00%     92.79% # attempts to use FU when none available (Count)
system.cpu.statFuBusy::SimdMisc                 10576      3.65%     96.44% # attempts to use FU when none available (Count)
system.cpu.statFuBusy::SimdMult                  5302      1.83%     98.27% # attempts to use FU when none available (Count)
system.cpu.statFuBusy::SimdMultAcc                  0      0.00%     98.27% # attempts to use FU when none available (Count)
system.cpu.statFuBusy::SimdMatMultAcc               0      0.00%     98.27% # attempts to use FU when none available (Count)
system.cpu.statFuBusy::SimdShift                  257      0.09%     98.35% # attempts to use FU when none available (Count)
system.cpu.statFuBusy::SimdShiftAcc                 0      0.00%     98.35% # attempts to use FU when none available (Count)
system.cpu.statFuBusy::SimdDiv                      0      0.00%     98.35% # attempts to use FU when none available (Count)
system.cpu.statFuBusy::SimdSqrt                     0      0.00%     98.35% # attempts to use FU when none available (Count)
system.cpu.statFuBusy::SimdFloatAdd                 0      0.00%     98.35% # attempts to use FU when none available (Count)
system.cpu.statFuBusy::SimdFloatAlu                 0      0.00%     98.35% # attempts to use FU when none available (Count)
system.cpu.statFuBusy::SimdFloatCmp                 0      0.00%     98.35% # attempts to use FU when none available (Count)
system.cpu.statFuBusy::SimdFloatCvt                 0      0.00%     98.35% # attempts to use FU when none available (Count)
system.cpu.statFuBusy::SimdFloatDiv                 0      0.00%     98.35% # attempts to use FU when none available (Count)
system.cpu.statFuBusy::SimdFloatMisc                0      0.00%     98.35% # attempts to use FU when none available (Count)
system.cpu.statFuBusy::SimdFloatMult                0      0.00%     98.35% # attempts to use FU when none available (Count)
system.cpu.statFuBusy::SimdFloatMultAcc             0      0.00%     98.35% # attempts to use FU when none available (Count)
system.cpu.statFuBusy::SimdFloatMatMultAcc            0      0.00%     98.35% # attempts to use FU when none available (Count)
system.cpu.statFuBusy::SimdFloatSqrt                0      0.00%     98.35% # attempts to use FU when none available (Count)
system.cpu.statFuBusy::SimdReduceAdd                0      0.00%     98.35% # attempts to use FU when none available (Count)
system.cpu.statFuBusy::SimdReduceAlu                0      0.00%     98.35% # attempts to use FU when none available (Count)
system.cpu.statFuBusy::SimdReduceCmp                0      0.00%     98.35% # attempts to use FU when none available (Count)
system.cpu.statFuBusy::SimdFloatReduceAdd            0      0.00%     98.35% # attempts to use FU when none available (Count)
system.cpu.statFuBusy::SimdFloatReduceCmp            0      0.00%     98.35% # attempts to use FU when none available (Count)
system.cpu.statFuBusy::SimdAes                      0      0.00%     98.35% # attempts to use FU when none available (Count)
system.cpu.statFuBusy::SimdAesMix                   0      0.00%     98.35% # attempts to use FU when none available (Count)
system.cpu.statFuBusy::SimdSha1Hash                 0      0.00%     98.35% # attempts to use FU when none available (Count)
system.cpu.statFuBusy::SimdSha1Hash2                0      0.00%     98.35% # attempts to use FU when none available (Count)
system.cpu.statFuBusy::SimdSha256Hash               0      0.00%     98.35% # attempts to use FU when none available (Count)
system.cpu.statFuBusy::SimdSha256Hash2              0      0.00%     98.35% # attempts to use FU when none available (Count)
system.cpu.statFuBusy::SimdShaSigma2                0      0.00%     98.35% # attempts to use FU when none available (Count)
system.cpu.statFuBusy::SimdShaSigma3                0      0.00%     98.35% # attempts to use FU when none available (Count)
system.cpu.statFuBusy::SimdPredAlu                  0      0.00%     98.35% # attempts to use FU when none available (Count)
system.cpu.statFuBusy::Matrix                       0      0.00%     98.35% # attempts to use FU when none available (Count)
system.cpu.statFuBusy::MatrixMov                    0      0.00%     98.35% # attempts to use FU when none available (Count)
system.cpu.statFuBusy::MatrixOP                     0      0.00%     98.35% # attempts to use FU when none available (Count)
system.cpu.statFuBusy::MemRead                   2104      0.73%     99.08% # attempts to use FU when none available (Count)
system.cpu.statFuBusy::MemWrite                   875      0.30%     99.38% # attempts to use FU when none available (Count)
system.cpu.statFuBusy::FloatMemRead                19      0.01%     99.39% # attempts to use FU when none available (Count)
system.cpu.statFuBusy::FloatMemWrite               18      0.01%     99.39% # attempts to use FU when none available (Count)
system.cpu.statFuBusy::IprAccess                    0      0.00%     99.39% # attempts to use FU when none available (Count)
system.cpu.statFuBusy::InstPrefetch                 0      0.00%     99.39% # attempts to use FU when none available (Count)
system.cpu.statFuBusy::SimdUnitStrideLoad          572      0.20%     99.59% # attempts to use FU when none available (Count)
system.cpu.statFuBusy::SimdUnitStrideStore            0      0.00%     99.59% # attempts to use FU when none available (Count)
system.cpu.statFuBusy::SimdUnitStrideMaskLoad            0      0.00%     99.59% # attempts to use FU when none available (Count)
system.cpu.statFuBusy::SimdUnitStrideMaskStore            0      0.00%     99.59% # attempts to use FU when none available (Count)
system.cpu.statFuBusy::SimdStridedLoad            995      0.34%     99.93% # attempts to use FU when none available (Count)
system.cpu.statFuBusy::SimdStridedStore           189      0.07%    100.00% # attempts to use FU when none available (Count)
system.cpu.statFuBusy::SimdIndexedLoad              0      0.00%    100.00% # attempts to use FU when none available (Count)
system.cpu.statFuBusy::SimdIndexedStore             0      0.00%    100.00% # attempts to use FU when none available (Count)
system.cpu.statFuBusy::SimdWholeRegisterLoad            0      0.00%    100.00% # attempts to use FU when none available (Count)
system.cpu.statFuBusy::SimdWholeRegisterStore            0      0.00%    100.00% # attempts to use FU when none available (Count)
system.cpu.statFuBusy::SimdUnitStrideFaultOnlyFirstLoad            0      0.00%    100.00% # attempts to use FU when none available (Count)
system.cpu.statFuBusy::SimdUnitStrideSegmentedLoad            0      0.00%    100.00% # attempts to use FU when none available (Count)
system.cpu.statFuBusy::SimdUnitStrideSegmentedStore            0      0.00%    100.00% # attempts to use FU when none available (Count)
system.cpu.statFuBusy::SimdExt                      0      0.00%    100.00% # attempts to use FU when none available (Count)
system.cpu.statFuBusy::SimdFloatExt                 0      0.00%    100.00% # attempts to use FU when none available (Count)
system.cpu.statFuBusy::SimdConfig                   1      0.00%    100.00% # attempts to use FU when none available (Count)
system.cpu.statIssuedInstType_0::No_OpClass           51      0.01%      0.01% # Number of instructions issued per FU type, per thread (Count)
system.cpu.statIssuedInstType_0::IntAlu        513393     64.11%     64.12% # Number of instructions issued per FU type, per thread (Count)
system.cpu.statIssuedInstType_0::IntMult        69537      8.68%     72.80% # Number of instructions issued per FU type, per thread (Count)
system.cpu.statIssuedInstType_0::IntDiv          6232      0.78%     73.58% # Number of instructions issued per FU type, per thread (Count)
system.cpu.statIssuedInstType_0::FloatAdd           24      0.00%     73.58% # Number of instructions issued per FU type, per thread (Count)
system.cpu.statIssuedInstType_0::FloatCmp            0      0.00%     73.58% # Number of instructions issued per FU type, per thread (Count)
system.cpu.statIssuedInstType_0::FloatCvt           23      0.00%     73.59% # Number of instructions issued per FU type, per thread (Count)
system.cpu.statIssuedInstType_0::FloatMult           12      0.00%     73.59% # Number of instructions issued per FU type, per thread (Count)
system.cpu.statIssuedInstType_0::FloatMultAcc           36      0.00%     73.59% # Number of instructions issued per FU type, per thread (Count)
system.cpu.statIssuedInstType_0::FloatDiv            0      0.00%     73.59% # Number of instructions issued per FU type, per thread (Count)
system.cpu.statIssuedInstType_0::FloatMisc            3      0.00%     73.59% # Number of instructions issued per FU type, per thread (Count)
system.cpu.statIssuedInstType_0::FloatSqrt            0      0.00%     73.59% # Number of instructions issued per FU type, per thread (Count)
system.cpu.statIssuedInstType_0::SimdAdd        23491      2.93%     76.53% # Number of instructions issued per FU type, per thread (Count)
system.cpu.statIssuedInstType_0::SimdAddAcc            0      0.00%     76.53% # Number of instructions issued per FU type, per thread (Count)
system.cpu.statIssuedInstType_0::SimdAlu           27      0.00%     76.53% # Number of instructions issued per FU type, per thread (Count)
system.cpu.statIssuedInstType_0::SimdCmp         7570      0.95%     77.47% # Number of instructions issued per FU type, per thread (Count)
system.cpu.statIssuedInstType_0::SimdCvt            0      0.00%     77.47% # Number of instructions issued per FU type, per thread (Count)
system.cpu.statIssuedInstType_0::SimdMisc         5336      0.67%     78.14% # Number of instructions issued per FU type, per thread (Count)
system.cpu.statIssuedInstType_0::SimdMult         8466      1.06%     79.20% # Number of instructions issued per FU type, per thread (Count)
system.cpu.statIssuedInstType_0::SimdMultAcc            0      0.00%     79.20% # Number of instructions issued per FU type, per thread (Count)
system.cpu.statIssuedInstType_0::SimdMatMultAcc            0      0.00%     79.20% # Number of instructions issued per FU type, per thread (Count)
system.cpu.statIssuedInstType_0::SimdShift           23      0.00%     79.20% # Number of instructions issued per FU type, per thread (Count)
system.cpu.statIssuedInstType_0::SimdShiftAcc            0      0.00%     79.20% # Number of instructions issued per FU type, per thread (Count)
system.cpu.statIssuedInstType_0::SimdDiv            0      0.00%     79.20% # Number of instructions issued per FU type, per thread (Count)
system.cpu.statIssuedInstType_0::SimdSqrt            0      0.00%     79.20% # Number of instructions issued per FU type, per thread (Count)
system.cpu.statIssuedInstType_0::SimdFloatAdd            0      0.00%     79.20% # Number of instructions issued per FU type, per thread (Count)
system.cpu.statIssuedInstType_0::SimdFloatAlu            0      0.00%     79.20% # Number of instructions issued per FU type, per thread (Count)
system.cpu.statIssuedInstType_0::SimdFloatCmp            0      0.00%     79.20% # Number of instructions issued per FU type, per thread (Count)
system.cpu.statIssuedInstType_0::SimdFloatCvt            0      0.00%     79.20% # Number of instructions issued per FU type, per thread (Count)
system.cpu.statIssuedInstType_0::SimdFloatDiv            0      0.00%     79.20% # Number of instructions issued per FU type, per thread (Count)
system.cpu.statIssuedInstType_0::SimdFloatMisc            0      0.00%     79.20% # Number of instructions issued per FU type, per thread (Count)
system.cpu.statIssuedInstType_0::SimdFloatMult            0      0.00%     79.20% # Number of instructions issued per FU type, per thread (Count)
system.cpu.statIssuedInstType_0::SimdFloatMultAcc            0      0.00%     79.20% # Number of instructions issued per FU type, per thread (Count)
system.cpu.statIssuedInstType_0::SimdFloatMatMultAcc            0      0.00%     79.20% # Number of instructions issued per FU type, per thread (Count)
system.cpu.statIssuedInstType_0::SimdFloatSqrt            0      0.00%     79.20% # Number of instructions issued per FU type, per thread (Count)
system.cpu.statIssuedInstType_0::SimdReduceAdd            0      0.00%     79.20% # Number of instructions issued per FU type, per thread (Count)
system.cpu.statIssuedInstType_0::SimdReduceAlu            0      0.00%     79.20% # Number of instructions issued per FU type, per thread (Count)
system.cpu.statIssuedInstType_0::SimdReduceCmp            0      0.00%     79.20% # Number of instructions issued per FU type, per thread (Count)
system.cpu.statIssuedInstType_0::SimdFloatReduceAdd            0      0.00%     79.20% # Number of instructions issued per FU type, per thread (Count)
system.cpu.statIssuedInstType_0::SimdFloatReduceCmp            0      0.00%     79.20% # Number of instructions issued per FU type, per thread (Count)
system.cpu.statIssuedInstType_0::SimdAes            0      0.00%     79.20% # Number of instructions issued per FU type, per thread (Count)
system.cpu.statIssuedInstType_0::SimdAesMix            0      0.00%     79.20% # Number of instructions issued per FU type, per thread (Count)
system.cpu.statIssuedInstType_0::SimdSha1Hash            0      0.00%     79.20% # Number of instructions issued per FU type, per thread (Count)
system.cpu.statIssuedInstType_0::SimdSha1Hash2            0      0.00%     79.20% # Number of instructions issued per FU type, per thread (Count)
system.cpu.statIssuedInstType_0::SimdSha256Hash            0      0.00%     79.20% # Number of instructions issued per FU type, per thread (Count)
system.cpu.statIssuedInstType_0::SimdSha256Hash2            0      0.00%     79.20% # Number of instructions issued per FU type, per thread (Count)
system.cpu.statIssuedInstType_0::SimdShaSigma2            0      0.00%     79.20% # Number of instructions issued per FU type, per thread (Count)
system.cpu.statIssuedInstType_0::SimdShaSigma3            0      0.00%     79.20% # Number of instructions issued per FU type, per thread (Count)
system.cpu.statIssuedInstType_0::SimdPredAlu            0      0.00%     79.20% # Number of instructions issued per FU type, per thread (Count)
system.cpu.statIssuedInstType_0::Matrix             0      0.00%     79.20% # Number of instructions issued per FU type, per thread (Count)
system.cpu.statIssuedInstType_0::MatrixMov            0      0.00%     79.20% # Number of instructions issued per FU type, per thread (Count)
system.cpu.statIssuedInstType_0::MatrixOP            0      0.00%     79.20% # Number of instructions issued per FU type, per thread (Count)
system.cpu.statIssuedInstType_0::MemRead        60867      7.60%     86.80% # Number of instructions issued per FU type, per thread (Count)
system.cpu.statIssuedInstType_0::MemWrite        58328      7.28%     94.09% # Number of instructions issued per FU type, per thread (Count)
system.cpu.statIssuedInstType_0::FloatMemRead           46      0.01%     94.09% # Number of instructions issued per FU type, per thread (Count)
system.cpu.statIssuedInstType_0::FloatMemWrite           14      0.00%     94.09% # Number of instructions issued per FU type, per thread (Count)
system.cpu.statIssuedInstType_0::IprAccess            0      0.00%     94.09% # Number of instructions issued per FU type, per thread (Count)
system.cpu.statIssuedInstType_0::InstPrefetch            0      0.00%     94.09% # Number of instructions issued per FU type, per thread (Count)
system.cpu.statIssuedInstType_0::SimdUnitStrideLoad         3636      0.45%     94.55% # Number of instructions issued per FU type, per thread (Count)
system.cpu.statIssuedInstType_0::SimdUnitStrideStore         2562      0.32%     94.87% # Number of instructions issued per FU type, per thread (Count)
system.cpu.statIssuedInstType_0::SimdUnitStrideMaskLoad            0      0.00%     94.87% # Number of instructions issued per FU type, per thread (Count)
system.cpu.statIssuedInstType_0::SimdUnitStrideMaskStore            0      0.00%     94.87% # Number of instructions issued per FU type, per thread (Count)
system.cpu.statIssuedInstType_0::SimdStridedLoad        20480      2.56%     97.42% # Number of instructions issued per FU type, per thread (Count)
system.cpu.statIssuedInstType_0::SimdStridedStore        20580      2.57%     99.99% # Number of instructions issued per FU type, per thread (Count)
system.cpu.statIssuedInstType_0::SimdIndexedLoad            0      0.00%     99.99% # Number of instructions issued per FU type, per thread (Count)
system.cpu.statIssuedInstType_0::SimdIndexedStore            0      0.00%     99.99% # Number of instructions issued per FU type, per thread (Count)
system.cpu.statIssuedInstType_0::SimdWholeRegisterLoad            4      0.00%    100.00% # Number of instructions issued per FU type, per thread (Count)
system.cpu.statIssuedInstType_0::SimdWholeRegisterStore            6      0.00%    100.00% # Number of instructions issued per FU type, per thread (Count)
system.cpu.statIssuedInstType_0::SimdUnitStrideFaultOnlyFirstLoad            0      0.00%    100.00% # Number of instructions issued per FU type, per thread (Count)
system.cpu.statIssuedInstType_0::SimdUnitStrideSegmentedLoad            0      0.00%    100.00% # Number of instructions issued per FU type, per thread (Count)
system.cpu.statIssuedInstType_0::SimdUnitStrideSegmentedStore            0      0.00%    100.00% # Number of instructions issued per FU type, per thread (Count)
system.cpu.statIssuedInstType_0::SimdExt            0      0.00%    100.00% # Number of instructions issued per FU type, per thread (Count)
system.cpu.statIssuedInstType_0::SimdFloatExt            0      0.00%    100.00% # Number of instructions issued per FU type, per thread (Count)
system.cpu.statIssuedInstType_0::SimdConfig           33      0.00%    100.00% # Number of instructions issued per FU type, per thread (Count)
system.cpu.statIssuedInstType_0::total         800780                       # Number of instructions issued per FU type, per thread (Count)
system.cpu.issueRate                         1.532837                       # Inst issue rate ((Count/Cycle))
system.cpu.fuBusy                              289995                       # FU busy when requested (Count)
system.cpu.fuBusyRate                        0.362141                       # FU busy rate (busy events/executed inst) ((Count/Count))
system.cpu.intInstQueueReads                  2196097                       # Number of integer instruction queue reads (Count)
system.cpu.intInstQueueWrites                  833668                       # Number of integer instruction queue writes (Count)
system.cpu.intInstQueueWakeupAccesses          705113                       # Number of integer instruction queue wakeup accesses (Count)
system.cpu.fpInstQueueReads                       371                       # Number of floating instruction queue reads (Count)
system.cpu.fpInstQueueWrites                      166                       # Number of floating instruction queue writes (Count)
system.cpu.fpInstQueueWakeupAccesses              154                       # Number of floating instruction queue wakeup accesses (Count)
system.cpu.vecInstQueueReads                   215944                       # Number of vector instruction queue reads (Count)
system.cpu.vecInstQueueWrites                  100019                       # Number of vector instruction queue writes (Count)
system.cpu.vecInstQueueWakeupAccesses           92053                       # Number of vector instruction queue wakeup accesses (Count)
system.cpu.intAluAccesses                      966949                       # Number of integer alu accesses (Count)
system.cpu.fpAluAccesses                          213                       # Number of floating point alu accesses (Count)
system.cpu.vecAluAccesses                      123562                       # Number of vector alu accesses (Count)
system.cpu.numSquashedInsts                      2230                       # Number of squashed instructions skipped in execute (Count)
system.cpu.numSwp                                   0                       # Number of swp insts executed (Count)
system.cpu.timesIdled                              69                       # Number of times that the entire CPU went into an idle state and unscheduled itself (Count)
system.cpu.idleCycles                            8180                       # Total number of cycles that the CPU has spent unscheduled due to idling (Cycle)
system.cpu.MemDepUnit__0.insertedLoads          93343                       # Number of loads inserted to the mem dependence unit. (Count)
system.cpu.MemDepUnit__0.insertedStores         85949                       # Number of stores inserted to the mem dependence unit. (Count)
system.cpu.MemDepUnit__0.conflictingLoads        46042                       # Number of conflicting loads. (Count)
system.cpu.MemDepUnit__0.conflictingStores        48703                       # Number of conflicting stores. (Count)
system.cpu.MemDepUnit__1.insertedLoads              0                       # Number of loads inserted to the mem dependence unit. (Count)
system.cpu.MemDepUnit__1.insertedStores             0                       # Number of stores inserted to the mem dependence unit. (Count)
system.cpu.MemDepUnit__1.conflictingLoads            0                       # Number of conflicting loads. (Count)
system.cpu.MemDepUnit__1.conflictingStores            0                       # Number of conflicting stores. (Count)
system.cpu.MemDepUnit__2.insertedLoads              0                       # Number of loads inserted to the mem dependence unit. (Count)
system.cpu.MemDepUnit__2.insertedStores             0                       # Number of stores inserted to the mem dependence unit. (Count)
system.cpu.MemDepUnit__2.conflictingLoads            0                       # Number of conflicting loads. (Count)
system.cpu.MemDepUnit__2.conflictingStores            0                       # Number of conflicting stores. (Count)
system.cpu.MemDepUnit__3.insertedLoads              0                       # Number of loads inserted to the mem dependence unit. (Count)
system.cpu.MemDepUnit__3.insertedStores             0                       # Number of stores inserted to the mem dependence unit. (Count)
system.cpu.MemDepUnit__3.conflictingLoads            0                       # Number of conflicting loads. (Count)
system.cpu.MemDepUnit__3.conflictingStores            0                       # Number of conflicting stores. (Count)
system.cpu.branchPred.lookups_0::NoBranch            0      0.00%      0.00% # Number of BP lookups (Count)
system.cpu.branchPred.lookups_0::Return           993      0.69%      0.69% # Number of BP lookups (Count)
system.cpu.branchPred.lookups_0::CallDirect          695      0.48%      1.16% # Number of BP lookups (Count)
system.cpu.branchPred.lookups_0::CallIndirect          562      0.39%      1.55% # Number of BP lookups (Count)
system.cpu.branchPred.lookups_0::DirectCond       114243     78.84%     80.40% # Number of BP lookups (Count)
system.cpu.branchPred.lookups_0::DirectUncond        28217     19.47%     99.87% # Number of BP lookups (Count)
system.cpu.branchPred.lookups_0::IndirectCond            0      0.00%     99.87% # Number of BP lookups (Count)
system.cpu.branchPred.lookups_0::IndirectUncond          188      0.13%    100.00% # Number of BP lookups (Count)
system.cpu.branchPred.lookups_0::total         144898                       # Number of BP lookups (Count)
system.cpu.branchPred.squashes_0::NoBranch            0      0.00%      0.00% # Number of branches that got squashed (completely removed) as an earlier branch was mispredicted. (Count)
system.cpu.branchPred.squashes_0::Return          778      3.53%      3.53% # Number of branches that got squashed (completely removed) as an earlier branch was mispredicted. (Count)
system.cpu.branchPred.squashes_0::CallDirect          540      2.45%      5.97% # Number of branches that got squashed (completely removed) as an earlier branch was mispredicted. (Count)
system.cpu.branchPred.squashes_0::CallIndirect          498      2.26%      8.23% # Number of branches that got squashed (completely removed) as an earlier branch was mispredicted. (Count)
system.cpu.branchPred.squashes_0::DirectCond        17078     77.41%     85.64% # Number of branches that got squashed (completely removed) as an earlier branch was mispredicted. (Count)
system.cpu.branchPred.squashes_0::DirectUncond         3016     13.67%     99.32% # Number of branches that got squashed (completely removed) as an earlier branch was mispredicted. (Count)
system.cpu.branchPred.squashes_0::IndirectCond            0      0.00%     99.32% # Number of branches that got squashed (completely removed) as an earlier branch was mispredicted. (Count)
system.cpu.branchPred.squashes_0::IndirectUncond          151      0.68%    100.00% # Number of branches that got squashed (completely removed) as an earlier branch was mispredicted. (Count)
system.cpu.branchPred.squashes_0::total         22061                       # Number of branches that got squashed (completely removed) as an earlier branch was mispredicted. (Count)
system.cpu.branchPred.corrected_0::NoBranch            0      0.00%      0.00% # Number of branches that got corrected but not yet commited. Branches get corrected by decode or after execute. Also a branch misprediction can be detected out-of-order. Therefore, a corrected branch might not end up beeing committed in case an even earlier branch was mispredicted (Count)
system.cpu.branchPred.corrected_0::Return            3      0.13%      0.13% # Number of branches that got corrected but not yet commited. Branches get corrected by decode or after execute. Also a branch misprediction can be detected out-of-order. Therefore, a corrected branch might not end up beeing committed in case an even earlier branch was mispredicted (Count)
system.cpu.branchPred.corrected_0::CallDirect          139      6.25%      6.39% # Number of branches that got corrected but not yet commited. Branches get corrected by decode or after execute. Also a branch misprediction can be detected out-of-order. Therefore, a corrected branch might not end up beeing committed in case an even earlier branch was mispredicted (Count)
system.cpu.branchPred.corrected_0::CallIndirect           60      2.70%      9.09% # Number of branches that got corrected but not yet commited. Branches get corrected by decode or after execute. Also a branch misprediction can be detected out-of-order. Therefore, a corrected branch might not end up beeing committed in case an even earlier branch was mispredicted (Count)
system.cpu.branchPred.corrected_0::DirectCond         1827     82.19%     91.27% # Number of branches that got corrected but not yet commited. Branches get corrected by decode or after execute. Also a branch misprediction can be detected out-of-order. Therefore, a corrected branch might not end up beeing committed in case an even earlier branch was mispredicted (Count)
system.cpu.branchPred.corrected_0::DirectUncond          159      7.15%     98.43% # Number of branches that got corrected but not yet commited. Branches get corrected by decode or after execute. Also a branch misprediction can be detected out-of-order. Therefore, a corrected branch might not end up beeing committed in case an even earlier branch was mispredicted (Count)
system.cpu.branchPred.corrected_0::IndirectCond            0      0.00%     98.43% # Number of branches that got corrected but not yet commited. Branches get corrected by decode or after execute. Also a branch misprediction can be detected out-of-order. Therefore, a corrected branch might not end up beeing committed in case an even earlier branch was mispredicted (Count)
system.cpu.branchPred.corrected_0::IndirectUncond           35      1.57%    100.00% # Number of branches that got corrected but not yet commited. Branches get corrected by decode or after execute. Also a branch misprediction can be detected out-of-order. Therefore, a corrected branch might not end up beeing committed in case an even earlier branch was mispredicted (Count)
system.cpu.branchPred.corrected_0::total         2223                       # Number of branches that got corrected but not yet commited. Branches get corrected by decode or after execute. Also a branch misprediction can be detected out-of-order. Therefore, a corrected branch might not end up beeing committed in case an even earlier branch was mispredicted (Count)
system.cpu.branchPred.earlyResteers_0::NoBranch            0                       # Number of branches that got redirected after decode. (Count)
system.cpu.branchPred.earlyResteers_0::Return            0                       # Number of branches that got redirected after decode. (Count)
system.cpu.branchPred.earlyResteers_0::CallDirect            0                       # Number of branches that got redirected after decode. (Count)
system.cpu.branchPred.earlyResteers_0::CallIndirect            0                       # Number of branches that got redirected after decode. (Count)
system.cpu.branchPred.earlyResteers_0::DirectCond            0                       # Number of branches that got redirected after decode. (Count)
system.cpu.branchPred.earlyResteers_0::DirectUncond            0                       # Number of branches that got redirected after decode. (Count)
system.cpu.branchPred.earlyResteers_0::IndirectCond            0                       # Number of branches that got redirected after decode. (Count)
system.cpu.branchPred.earlyResteers_0::IndirectUncond            0                       # Number of branches that got redirected after decode. (Count)
system.cpu.branchPred.earlyResteers_0::total            0                       # Number of branches that got redirected after decode. (Count)
system.cpu.branchPred.committed_0::NoBranch            0      0.00%      0.00% # Number of branches finally committed  (Count)
system.cpu.branchPred.committed_0::Return          214      0.17%      0.17% # Number of branches finally committed  (Count)
system.cpu.branchPred.committed_0::CallDirect          154      0.13%      0.30% # Number of branches finally committed  (Count)
system.cpu.branchPred.committed_0::CallIndirect           64      0.05%      0.35% # Number of branches finally committed  (Count)
system.cpu.branchPred.committed_0::DirectCond        97157     79.10%     79.45% # Number of branches finally committed  (Count)
system.cpu.branchPred.committed_0::DirectUncond        25200     20.52%     99.97% # Number of branches finally committed  (Count)
system.cpu.branchPred.committed_0::IndirectCond            0      0.00%     99.97% # Number of branches finally committed  (Count)
system.cpu.branchPred.committed_0::IndirectUncond           37      0.03%    100.00% # Number of branches finally committed  (Count)
system.cpu.branchPred.committed_0::total       122826                       # Number of branches finally committed  (Count)
system.cpu.branchPred.mispredicted_0::NoBranch            0      0.00%      0.00% # Number of committed branches that were mispredicted. (Count)
system.cpu.branchPred.mispredicted_0::Return            3      0.17%      0.17% # Number of committed branches that were mispredicted. (Count)
system.cpu.branchPred.mispredicted_0::CallDirect           50      2.86%      3.03% # Number of committed branches that were mispredicted. (Count)
system.cpu.branchPred.mispredicted_0::CallIndirect           52      2.98%      6.01% # Number of committed branches that were mispredicted. (Count)
system.cpu.branchPred.mispredicted_0::DirectCond         1564     89.52%     95.54% # Number of committed branches that were mispredicted. (Count)
system.cpu.branchPred.mispredicted_0::DirectUncond           59      3.38%     98.91% # Number of committed branches that were mispredicted. (Count)
system.cpu.branchPred.mispredicted_0::IndirectCond            0      0.00%     98.91% # Number of committed branches that were mispredicted. (Count)
system.cpu.branchPred.mispredicted_0::IndirectUncond           19      1.09%    100.00% # Number of committed branches that were mispredicted. (Count)
system.cpu.branchPred.mispredicted_0::total         1747                       # Number of committed branches that were mispredicted. (Count)
system.cpu.branchPred.targetProvider_0::NoTarget       106869     73.75%     73.75% # The component providing the target for taken branches (Count)
system.cpu.branchPred.targetProvider_0::BTB        36997     25.53%     99.29% # The component providing the target for taken branches (Count)
system.cpu.branchPred.targetProvider_0::RAS          992      0.68%     99.97% # The component providing the target for taken branches (Count)
system.cpu.branchPred.targetProvider_0::Indirect           40      0.03%    100.00% # The component providing the target for taken branches (Count)
system.cpu.branchPred.targetProvider_0::total       144898                       # The component providing the target for taken branches (Count)
system.cpu.branchPred.targetWrong_0::NoBranch         1660     77.57%     77.57% # Number of branches where the target was incorrect or not available at prediction time. (Count)
system.cpu.branchPred.targetWrong_0::Return          471     22.01%     99.58% # Number of branches where the target was incorrect or not available at prediction time. (Count)
system.cpu.branchPred.targetWrong_0::CallDirect            0      0.00%     99.58% # Number of branches where the target was incorrect or not available at prediction time. (Count)
system.cpu.branchPred.targetWrong_0::CallIndirect            9      0.42%    100.00% # Number of branches where the target was incorrect or not available at prediction time. (Count)
system.cpu.branchPred.targetWrong_0::DirectCond            0      0.00%    100.00% # Number of branches where the target was incorrect or not available at prediction time. (Count)
system.cpu.branchPred.targetWrong_0::DirectUncond            0      0.00%    100.00% # Number of branches where the target was incorrect or not available at prediction time. (Count)
system.cpu.branchPred.targetWrong_0::IndirectCond            0      0.00%    100.00% # Number of branches where the target was incorrect or not available at prediction time. (Count)
system.cpu.branchPred.targetWrong_0::IndirectUncond            0      0.00%    100.00% # Number of branches where the target was incorrect or not available at prediction time. (Count)
system.cpu.branchPred.targetWrong_0::total         2140                       # Number of branches where the target was incorrect or not available at prediction time. (Count)
system.cpu.branchPred.condPredicted            114243                       # Number of conditional branches predicted (Count)
system.cpu.branchPred.condPredictedTaken         9504                       # Number of conditional branches predicted as taken (Count)
system.cpu.branchPred.condIncorrect              2223                       # Number of conditional branches incorrect (Count)
system.cpu.branchPred.predTakenBTBMiss            320                       # Number of branches predicted taken but missed in BTB (Count)
system.cpu.branchPred.NotTakenMispredicted         1958                       # Number branches predicted 'not taken' but turned out to be taken (Count)
system.cpu.branchPred.TakenMispredicted           265                       # Number branches predicted taken but are actually not taken (Count)
system.cpu.branchPred.BTBLookups               144898                       # Number of BTB lookups (Count)
system.cpu.branchPred.BTBUpdates                 1860                       # Number of BTB updates (Count)
system.cpu.branchPred.BTBHits                   62357                       # Number of BTB hits (Count)
system.cpu.branchPred.BTBHitRatio            0.430351                       # BTB Hit Ratio (Ratio)
system.cpu.branchPred.BTBMispredicted             525                       # Number BTB mispredictions. No target found or target wrong (Count)
system.cpu.branchPred.indirectLookups             750                       # Number of indirect predictor lookups. (Count)
system.cpu.branchPred.indirectHits                 40                       # Number of indirect target hits. (Count)
system.cpu.branchPred.indirectMisses              710                       # Number of indirect misses. (Count)
system.cpu.branchPred.indirectMispredicted            0                       # Number of mispredicted indirect branches. (Count)
system.cpu.branchPred.btb.lookups::NoBranch            0      0.00%      0.00% # Number of BTB lookups (Count)
system.cpu.branchPred.btb.lookups::Return          993      0.69%      0.69% # Number of BTB lookups (Count)
system.cpu.branchPred.btb.lookups::CallDirect          695      0.48%      1.16% # Number of BTB lookups (Count)
system.cpu.branchPred.btb.lookups::CallIndirect          562      0.39%      1.55% # Number of BTB lookups (Count)
system.cpu.branchPred.btb.lookups::DirectCond       114243     78.84%     80.40% # Number of BTB lookups (Count)
system.cpu.branchPred.btb.lookups::DirectUncond        28217     19.47%     99.87% # Number of BTB lookups (Count)
system.cpu.branchPred.btb.lookups::IndirectCond            0      0.00%     99.87% # Number of BTB lookups (Count)
system.cpu.branchPred.btb.lookups::IndirectUncond          188      0.13%    100.00% # Number of BTB lookups (Count)
system.cpu.branchPred.btb.lookups::total       144898                       # Number of BTB lookups (Count)
system.cpu.branchPred.btb.misses::NoBranch            0      0.00%      0.00% # Number of BTB misses (Count)
system.cpu.branchPred.btb.misses::Return          976      1.18%      1.18% # Number of BTB misses (Count)
system.cpu.branchPred.btb.misses::CallDirect          248      0.30%      1.48% # Number of BTB misses (Count)
system.cpu.branchPred.btb.misses::CallIndirect          562      0.68%      2.16% # Number of BTB misses (Count)
system.cpu.branchPred.btb.misses::DirectCond        80303     97.29%     99.45% # Number of BTB misses (Count)
system.cpu.branchPred.btb.misses::DirectUncond          264      0.32%     99.77% # Number of BTB misses (Count)
system.cpu.branchPred.btb.misses::IndirectCond            0      0.00%     99.77% # Number of BTB misses (Count)
system.cpu.branchPred.btb.misses::IndirectUncond          188      0.23%    100.00% # Number of BTB misses (Count)
system.cpu.branchPred.btb.misses::total         82541                       # Number of BTB misses (Count)
system.cpu.branchPred.btb.updates::NoBranch            0      0.00%      0.00% # Number of BTB updates (Count)
system.cpu.branchPred.btb.updates::Return            0      0.00%      0.00% # Number of BTB updates (Count)
system.cpu.branchPred.btb.updates::CallDirect          139      7.47%      7.47% # Number of BTB updates (Count)
system.cpu.branchPred.btb.updates::CallIndirect            0      0.00%      7.47% # Number of BTB updates (Count)
system.cpu.branchPred.btb.updates::DirectCond         1562     83.98%     91.45% # Number of BTB updates (Count)
system.cpu.branchPred.btb.updates::DirectUncond          159      8.55%    100.00% # Number of BTB updates (Count)
system.cpu.branchPred.btb.updates::IndirectCond            0      0.00%    100.00% # Number of BTB updates (Count)
system.cpu.branchPred.btb.updates::IndirectUncond            0      0.00%    100.00% # Number of BTB updates (Count)
system.cpu.branchPred.btb.updates::total         1860                       # Number of BTB updates (Count)
system.cpu.branchPred.btb.mispredict::NoBranch            0      0.00%      0.00% # Number of BTB mispredictions. No target found or target wrong. (Count)
system.cpu.branchPred.btb.mispredict::Return            0      0.00%      0.00% # Number of BTB mispredictions. No target found or target wrong. (Count)
system.cpu.branchPred.btb.mispredict::CallDirect          139      7.47%      7.47% # Number of BTB mispredictions. No target found or target wrong. (Count)
system.cpu.branchPred.btb.mispredict::CallIndirect            0      0.00%      7.47% # Number of BTB mispredictions. No target found or target wrong. (Count)
system.cpu.branchPred.btb.mispredict::DirectCond         1562     83.98%     91.45% # Number of BTB mispredictions. No target found or target wrong. (Count)
system.cpu.branchPred.btb.mispredict::DirectUncond          159      8.55%    100.00% # Number of BTB mispredictions. No target found or target wrong. (Count)
system.cpu.branchPred.btb.mispredict::IndirectCond            0      0.00%    100.00% # Number of BTB mispredictions. No target found or target wrong. (Count)
system.cpu.branchPred.btb.mispredict::IndirectUncond            0      0.00%    100.00% # Number of BTB mispredictions. No target found or target wrong. (Count)
system.cpu.branchPred.btb.mispredict::total         1860                       # Number of BTB mispredictions. No target found or target wrong. (Count)
system.cpu.branchPred.btb.power_state.pwrStateResidencyTicks::UNDEFINED    522416000                       # Cumulative time (in ticks) in various power states (Tick)
system.cpu.branchPred.indirectBranchPred.lookups          750                       # Number of lookups (Count)
system.cpu.branchPred.indirectBranchPred.hits           40                       # Number of hits of a tag (Count)
system.cpu.branchPred.indirectBranchPred.misses          710                       # Number of misses (Count)
system.cpu.branchPred.indirectBranchPred.targetRecords           95                       # Number of targets that where recorded/installed in the cache (Count)
system.cpu.branchPred.indirectBranchPred.indirectRecords          845                       # Number of indirect branches/calls recorded in the indirect hist (Count)
system.cpu.branchPred.indirectBranchPred.speculativeOverflows            2                       # Number of times more than the allowed capacity for speculative branches/calls where in flight and destroy the path history (Count)
system.cpu.branchPred.ras.pushes                 2035                       # Number of times a PC was pushed onto the RAS (Count)
system.cpu.branchPred.ras.pops                   2031                       # Number of times a PC was poped from the RAS (Count)
system.cpu.branchPred.ras.squashes               1816                       # Number of times the stack operation was squashed due to wrong speculation. (Count)
system.cpu.branchPred.ras.used                    214                       # Number of times the RAS is the provider (Count)
system.cpu.branchPred.ras.correct                 211                       # Number of times the RAS is the provider and the prediction is correct (Count)
system.cpu.branchPred.ras.incorrect                 3                       # Number of times the RAS is the provider and the prediction is wrong (Count)
system.cpu.commit.commitSquashedInsts           72869                       # The number of squashed insts skipped by commit (Count)
system.cpu.commit.commitNonSpecStalls              74                       # The number of times commit has been forced to stall to communicate backwards (Count)
system.cpu.commit.branchMispredicts              1786                       # The number of times a branch was mispredicted (Count)
system.cpu.commit.numCommittedDist::samples       510823                       # Number of insts commited each cycle (Count)
system.cpu.commit.numCommittedDist::mean     1.541211                       # Number of insts commited each cycle (Count)
system.cpu.commit.numCommittedDist::stdev     2.361285                       # Number of insts commited each cycle (Count)
system.cpu.commit.numCommittedDist::underflows            0      0.00%      0.00% # Number of insts commited each cycle (Count)
system.cpu.commit.numCommittedDist::0          230002     45.03%     45.03% # Number of insts commited each cycle (Count)
system.cpu.commit.numCommittedDist::1          151818     29.72%     74.75% # Number of insts commited each cycle (Count)
system.cpu.commit.numCommittedDist::2           14033      2.75%     77.49% # Number of insts commited each cycle (Count)
system.cpu.commit.numCommittedDist::3           50777      9.94%     87.43% # Number of insts commited each cycle (Count)
system.cpu.commit.numCommittedDist::4           13387      2.62%     90.05% # Number of insts commited each cycle (Count)
system.cpu.commit.numCommittedDist::5             511      0.10%     90.15% # Number of insts commited each cycle (Count)
system.cpu.commit.numCommittedDist::6             818      0.16%     90.31% # Number of insts commited each cycle (Count)
system.cpu.commit.numCommittedDist::7            1756      0.34%     90.66% # Number of insts commited each cycle (Count)
system.cpu.commit.numCommittedDist::8           47721      9.34%    100.00% # Number of insts commited each cycle (Count)
system.cpu.commit.numCommittedDist::overflows            0      0.00%    100.00% # Number of insts commited each cycle (Count)
system.cpu.commit.numCommittedDist::min_value            0                       # Number of insts commited each cycle (Count)
system.cpu.commit.numCommittedDist::max_value            8                       # Number of insts commited each cycle (Count)
system.cpu.commit.numCommittedDist::total       510823                       # Number of insts commited each cycle (Count)
system.cpu.commit.amos                              0                       # Number of atomic instructions committed (Count)
system.cpu.commit.membars                          22                       # Number of memory barriers committed (Count)
system.cpu.commit.functionCalls                   218                       # Number of function calls committed. (Count)
system.cpu.commit.committedInstType_0::No_OpClass           38      0.00%      0.00% # Class of committed instruction (Count)
system.cpu.commit.committedInstType_0::IntAlu       504508     64.08%     64.09% # Class of committed instruction (Count)
system.cpu.commit.committedInstType_0::IntMult        69251      8.80%     72.88% # Class of committed instruction (Count)
system.cpu.commit.committedInstType_0::IntDiv         6224      0.79%     73.67% # Class of committed instruction (Count)
system.cpu.commit.committedInstType_0::FloatAdd           24      0.00%     73.68% # Class of committed instruction (Count)
system.cpu.commit.committedInstType_0::FloatCmp            0      0.00%     73.68% # Class of committed instruction (Count)
system.cpu.commit.committedInstType_0::FloatCvt           20      0.00%     73.68% # Class of committed instruction (Count)
system.cpu.commit.committedInstType_0::FloatMult           12      0.00%     73.68% # Class of committed instruction (Count)
system.cpu.commit.committedInstType_0::FloatMultAcc           36      0.00%     73.69% # Class of committed instruction (Count)
system.cpu.commit.committedInstType_0::FloatDiv            0      0.00%     73.69% # Class of committed instruction (Count)
system.cpu.commit.committedInstType_0::FloatMisc            2      0.00%     73.69% # Class of committed instruction (Count)
system.cpu.commit.committedInstType_0::FloatSqrt            0      0.00%     73.69% # Class of committed instruction (Count)
system.cpu.commit.committedInstType_0::SimdAdd        23433      2.98%     76.66% # Class of committed instruction (Count)
system.cpu.commit.committedInstType_0::SimdAddAcc            0      0.00%     76.66% # Class of committed instruction (Count)
system.cpu.commit.committedInstType_0::SimdAlu           12      0.00%     76.66% # Class of committed instruction (Count)
system.cpu.commit.committedInstType_0::SimdCmp         7552      0.96%     77.62% # Class of committed instruction (Count)
system.cpu.commit.committedInstType_0::SimdCvt            0      0.00%     77.62% # Class of committed instruction (Count)
system.cpu.commit.committedInstType_0::SimdMisc         5229      0.66%     78.29% # Class of committed instruction (Count)
system.cpu.commit.committedInstType_0::SimdMult         8448      1.07%     79.36% # Class of committed instruction (Count)
system.cpu.commit.committedInstType_0::SimdMultAcc            0      0.00%     79.36% # Class of committed instruction (Count)
system.cpu.commit.committedInstType_0::SimdMatMultAcc            0      0.00%     79.36% # Class of committed instruction (Count)
system.cpu.commit.committedInstType_0::SimdShift           16      0.00%     79.36% # Class of committed instruction (Count)
system.cpu.commit.committedInstType_0::SimdShiftAcc            0      0.00%     79.36% # Class of committed instruction (Count)
system.cpu.commit.committedInstType_0::SimdDiv            0      0.00%     79.36% # Class of committed instruction (Count)
system.cpu.commit.committedInstType_0::SimdSqrt            0      0.00%     79.36% # Class of committed instruction (Count)
system.cpu.commit.committedInstType_0::SimdFloatAdd            0      0.00%     79.36% # Class of committed instruction (Count)
system.cpu.commit.committedInstType_0::SimdFloatAlu            0      0.00%     79.36% # Class of committed instruction (Count)
system.cpu.commit.committedInstType_0::SimdFloatCmp            0      0.00%     79.36% # Class of committed instruction (Count)
system.cpu.commit.committedInstType_0::SimdFloatCvt            0      0.00%     79.36% # Class of committed instruction (Count)
system.cpu.commit.committedInstType_0::SimdFloatDiv            0      0.00%     79.36% # Class of committed instruction (Count)
system.cpu.commit.committedInstType_0::SimdFloatMisc            0      0.00%     79.36% # Class of committed instruction (Count)
system.cpu.commit.committedInstType_0::SimdFloatMult            0      0.00%     79.36% # Class of committed instruction (Count)
system.cpu.commit.committedInstType_0::SimdFloatMultAcc            0      0.00%     79.36% # Class of committed instruction (Count)
system.cpu.commit.committedInstType_0::SimdFloatMatMultAcc            0      0.00%     79.36% # Class of committed instruction (Count)
system.cpu.commit.committedInstType_0::SimdFloatSqrt            0      0.00%     79.36% # Class of committed instruction (Count)
system.cpu.commit.committedInstType_0::SimdReduceAdd            0      0.00%     79.36% # Class of committed instruction (Count)
system.cpu.commit.committedInstType_0::SimdReduceAlu            0      0.00%     79.36% # Class of committed instruction (Count)
system.cpu.commit.committedInstType_0::SimdReduceCmp            0      0.00%     79.36% # Class of committed instruction (Count)
system.cpu.commit.committedInstType_0::SimdFloatReduceAdd            0      0.00%     79.36% # Class of committed instruction (Count)
system.cpu.commit.committedInstType_0::SimdFloatReduceCmp            0      0.00%     79.36% # Class of committed instruction (Count)
system.cpu.commit.committedInstType_0::SimdAes            0      0.00%     79.36% # Class of committed instruction (Count)
system.cpu.commit.committedInstType_0::SimdAesMix            0      0.00%     79.36% # Class of committed instruction (Count)
system.cpu.commit.committedInstType_0::SimdSha1Hash            0      0.00%     79.36% # Class of committed instruction (Count)
system.cpu.commit.committedInstType_0::SimdSha1Hash2            0      0.00%     79.36% # Class of committed instruction (Count)
system.cpu.commit.committedInstType_0::SimdSha256Hash            0      0.00%     79.36% # Class of committed instruction (Count)
system.cpu.commit.committedInstType_0::SimdSha256Hash2            0      0.00%     79.36% # Class of committed instruction (Count)
system.cpu.commit.committedInstType_0::SimdShaSigma2            0      0.00%     79.36% # Class of committed instruction (Count)
system.cpu.commit.committedInstType_0::SimdShaSigma3            0      0.00%     79.36% # Class of committed instruction (Count)
system.cpu.commit.committedInstType_0::SimdPredAlu            0      0.00%     79.36% # Class of committed instruction (Count)
system.cpu.commit.committedInstType_0::Matrix            0      0.00%     79.36% # Class of committed instruction (Count)
system.cpu.commit.committedInstType_0::MatrixMov            0      0.00%     79.36% # Class of committed instruction (Count)
system.cpu.commit.committedInstType_0::MatrixOP            0      0.00%     79.36% # Class of committed instruction (Count)
system.cpu.commit.committedInstType_0::MemRead        57803      7.34%     86.70% # Class of committed instruction (Count)
system.cpu.commit.committedInstType_0::MemWrite        57487      7.30%     94.01% # Class of committed instruction (Count)
system.cpu.commit.committedInstType_0::FloatMemRead           46      0.01%     94.01% # Class of committed instruction (Count)
system.cpu.commit.committedInstType_0::FloatMemWrite           14      0.00%     94.01% # Class of committed instruction (Count)
system.cpu.commit.committedInstType_0::IprAccess            0      0.00%     94.01% # Class of committed instruction (Count)
system.cpu.commit.committedInstType_0::InstPrefetch            0      0.00%     94.01% # Class of committed instruction (Count)
system.cpu.commit.committedInstType_0::SimdUnitStrideLoad         3588      0.46%     94.47% # Class of committed instruction (Count)
system.cpu.commit.committedInstType_0::SimdUnitStrideStore         2561      0.33%     94.79% # Class of committed instruction (Count)
system.cpu.commit.committedInstType_0::SimdUnitStrideMaskLoad            0      0.00%     94.79% # Class of committed instruction (Count)
system.cpu.commit.committedInstType_0::SimdUnitStrideMaskStore            0      0.00%     94.79% # Class of committed instruction (Count)
system.cpu.commit.committedInstType_0::SimdStridedLoad        20480      2.60%     97.40% # Class of committed instruction (Count)
system.cpu.commit.committedInstType_0::SimdStridedStore        20480      2.60%    100.00% # Class of committed instruction (Count)
system.cpu.commit.committedInstType_0::SimdIndexedLoad            0      0.00%    100.00% # Class of committed instruction (Count)
system.cpu.commit.committedInstType_0::SimdIndexedStore            0      0.00%    100.00% # Class of committed instruction (Count)
system.cpu.commit.committedInstType_0::SimdWholeRegisterLoad            3      0.00%    100.00% # Class of committed instruction (Count)
system.cpu.commit.committedInstType_0::SimdWholeRegisterStore            3      0.00%    100.00% # Class of committed instruction (Count)
system.cpu.commit.committedInstType_0::SimdUnitStrideFaultOnlyFirstLoad            0      0.00%    100.00% # Class of committed instruction (Count)
system.cpu.commit.committedInstType_0::SimdUnitStrideSegmentedLoad            0      0.00%    100.00% # Class of committed instruction (Count)
system.cpu.commit.committedInstType_0::SimdUnitStrideSegmentedStore            0      0.00%    100.00% # Class of committed instruction (Count)
system.cpu.commit.committedInstType_0::SimdExt            0      0.00%    100.00% # Class of committed instruction (Count)
system.cpu.commit.committedInstType_0::SimdFloatExt            0      0.00%    100.00% # Class of committed instruction (Count)
system.cpu.commit.committedInstType_0::SimdConfig           16      0.00%    100.00% # Class of committed instruction (Count)
system.cpu.commit.committedInstType_0::total       787286                       # Class of committed instruction (Count)
system.cpu.commit.commitEligibleSamples         47721                       # number cycles where commit BW limit reached (Cycle)
system.cpu.commitStats0.numInsts               741307                       # Number of instructions committed (thread level) (Count)
system.cpu.commitStats0.numOps                 787286                       # Number of ops (including micro ops) committed (thread level) (Count)
system.cpu.commitStats0.numInstsNotNOP         741307                       # Number of instructions committed excluding NOPs or prefetches (Count)
system.cpu.commitStats0.numOpsNotNOP           787286                       # Number of Ops (including micro ops) Simulated (Count)
system.cpu.commitStats0.cpi                  0.704724                       # CPI: cycles per instruction (thread level) ((Cycle/Count))
system.cpu.commitStats0.ipc                  1.418995                       # IPC: instructions per cycle (thread level) ((Count/Cycle))
system.cpu.commitStats0.numMemRefs             162465                       # Number of memory references committed (Count)
system.cpu.commitStats0.numFpInsts                154                       # Number of float instructions (Count)
system.cpu.commitStats0.numIntInsts            670206                       # Number of integer instructions (Count)
system.cpu.commitStats0.numLoadInsts            81907                       # Number of load instructions (Count)
system.cpu.commitStats0.numStoreInsts           80545                       # Number of store instructions (Count)
system.cpu.commitStats0.numVecInsts             91821                       # Number of vector instructions (Count)
system.cpu.commitStats0.committedInstType::No_OpClass           38      0.00%      0.00% # Class of committed instruction. (Count)
system.cpu.commitStats0.committedInstType::IntAlu       504508     64.08%     64.09% # Class of committed instruction. (Count)
system.cpu.commitStats0.committedInstType::IntMult        69251      8.80%     72.88% # Class of committed instruction. (Count)
system.cpu.commitStats0.committedInstType::IntDiv         6224      0.79%     73.67% # Class of committed instruction. (Count)
system.cpu.commitStats0.committedInstType::FloatAdd           24      0.00%     73.68% # Class of committed instruction. (Count)
system.cpu.commitStats0.committedInstType::FloatCmp            0      0.00%     73.68% # Class of committed instruction. (Count)
system.cpu.commitStats0.committedInstType::FloatCvt           20      0.00%     73.68% # Class of committed instruction. (Count)
system.cpu.commitStats0.committedInstType::FloatMult           12      0.00%     73.68% # Class of committed instruction. (Count)
system.cpu.commitStats0.committedInstType::FloatMultAcc           36      0.00%     73.69% # Class of committed instruction. (Count)
system.cpu.commitStats0.committedInstType::FloatDiv            0      0.00%     73.69% # Class of committed instruction. (Count)
system.cpu.commitStats0.committedInstType::FloatMisc            2      0.00%     73.69% # Class of committed instruction. (Count)
system.cpu.commitStats0.committedInstType::FloatSqrt            0      0.00%     73.69% # Class of committed instruction. (Count)
system.cpu.commitStats0.committedInstType::SimdAdd        23433      2.98%     76.66% # Class of committed instruction. (Count)
system.cpu.commitStats0.committedInstType::SimdAddAcc            0      0.00%     76.66% # Class of committed instruction. (Count)
system.cpu.commitStats0.committedInstType::SimdAlu           12      0.00%     76.66% # Class of committed instruction. (Count)
system.cpu.commitStats0.committedInstType::SimdCmp         7552      0.96%     77.62% # Class of committed instruction. (Count)
system.cpu.commitStats0.committedInstType::SimdCvt            0      0.00%     77.62% # Class of committed instruction. (Count)
system.cpu.commitStats0.committedInstType::SimdMisc         5229      0.66%     78.29% # Class of committed instruction. (Count)
system.cpu.commitStats0.committedInstType::SimdMult         8448      1.07%     79.36% # Class of committed instruction. (Count)
system.cpu.commitStats0.committedInstType::SimdMultAcc            0      0.00%     79.36% # Class of committed instruction. (Count)
system.cpu.commitStats0.committedInstType::SimdMatMultAcc            0      0.00%     79.36% # Class of committed instruction. (Count)
system.cpu.commitStats0.committedInstType::SimdShift           16      0.00%     79.36% # Class of committed instruction. (Count)
system.cpu.commitStats0.committedInstType::SimdShiftAcc            0      0.00%     79.36% # Class of committed instruction. (Count)
system.cpu.commitStats0.committedInstType::SimdDiv            0      0.00%     79.36% # Class of committed instruction. (Count)
system.cpu.commitStats0.committedInstType::SimdSqrt            0      0.00%     79.36% # Class of committed instruction. (Count)
system.cpu.commitStats0.committedInstType::SimdFloatAdd            0      0.00%     79.36% # Class of committed instruction. (Count)
system.cpu.commitStats0.committedInstType::SimdFloatAlu            0      0.00%     79.36% # Class of committed instruction. (Count)
system.cpu.commitStats0.committedInstType::SimdFloatCmp            0      0.00%     79.36% # Class of committed instruction. (Count)
system.cpu.commitStats0.committedInstType::SimdFloatCvt            0      0.00%     79.36% # Class of committed instruction. (Count)
system.cpu.commitStats0.committedInstType::SimdFloatDiv            0      0.00%     79.36% # Class of committed instruction. (Count)
system.cpu.commitStats0.committedInstType::SimdFloatMisc            0      0.00%     79.36% # Class of committed instruction. (Count)
system.cpu.commitStats0.committedInstType::SimdFloatMult            0      0.00%     79.36% # Class of committed instruction. (Count)
system.cpu.commitStats0.committedInstType::SimdFloatMultAcc            0      0.00%     79.36% # Class of committed instruction. (Count)
system.cpu.commitStats0.committedInstType::SimdFloatMatMultAcc            0      0.00%     79.36% # Class of committed instruction. (Count)
system.cpu.commitStats0.committedInstType::SimdFloatSqrt            0      0.00%     79.36% # Class of committed instruction. (Count)
system.cpu.commitStats0.committedInstType::SimdReduceAdd            0      0.00%     79.36% # Class of committed instruction. (Count)
system.cpu.commitStats0.committedInstType::SimdReduceAlu            0      0.00%     79.36% # Class of committed instruction. (Count)
system.cpu.commitStats0.committedInstType::SimdReduceCmp            0      0.00%     79.36% # Class of committed instruction. (Count)
system.cpu.commitStats0.committedInstType::SimdFloatReduceAdd            0      0.00%     79.36% # Class of committed instruction. (Count)
system.cpu.commitStats0.committedInstType::SimdFloatReduceCmp            0      0.00%     79.36% # Class of committed instruction. (Count)
system.cpu.commitStats0.committedInstType::SimdAes            0      0.00%     79.36% # Class of committed instruction. (Count)
system.cpu.commitStats0.committedInstType::SimdAesMix            0      0.00%     79.36% # Class of committed instruction. (Count)
system.cpu.commitStats0.committedInstType::SimdSha1Hash            0      0.00%     79.36% # Class of committed instruction. (Count)
system.cpu.commitStats0.committedInstType::SimdSha1Hash2            0      0.00%     79.36% # Class of committed instruction. (Count)
system.cpu.commitStats0.committedInstType::SimdSha256Hash            0      0.00%     79.36% # Class of committed instruction. (Count)
system.cpu.commitStats0.committedInstType::SimdSha256Hash2            0      0.00%     79.36% # Class of committed instruction. (Count)
system.cpu.commitStats0.committedInstType::SimdShaSigma2            0      0.00%     79.36% # Class of committed instruction. (Count)
system.cpu.commitStats0.committedInstType::SimdShaSigma3            0      0.00%     79.36% # Class of committed instruction. (Count)
system.cpu.commitStats0.committedInstType::SimdPredAlu            0      0.00%     79.36% # Class of committed instruction. (Count)
system.cpu.commitStats0.committedInstType::Matrix            0      0.00%     79.36% # Class of committed instruction. (Count)
system.cpu.commitStats0.committedInstType::MatrixMov            0      0.00%     79.36% # Class of committed instruction. (Count)
system.cpu.commitStats0.committedInstType::MatrixOP            0      0.00%     79.36% # Class of committed instruction. (Count)
system.cpu.commitStats0.committedInstType::MemRead        57803      7.34%     86.70% # Class of committed instruction. (Count)
system.cpu.commitStats0.committedInstType::MemWrite        57487      7.30%     94.01% # Class of committed instruction. (Count)
system.cpu.commitStats0.committedInstType::FloatMemRead           46      0.01%     94.01% # Class of committed instruction. (Count)
system.cpu.commitStats0.committedInstType::FloatMemWrite           14      0.00%     94.01% # Class of committed instruction. (Count)
system.cpu.commitStats0.committedInstType::IprAccess            0      0.00%     94.01% # Class of committed instruction. (Count)
system.cpu.commitStats0.committedInstType::InstPrefetch            0      0.00%     94.01% # Class of committed instruction. (Count)
system.cpu.commitStats0.committedInstType::SimdUnitStrideLoad         3588      0.46%     94.47% # Class of committed instruction. (Count)
system.cpu.commitStats0.committedInstType::SimdUnitStrideStore         2561      0.33%     94.79% # Class of committed instruction. (Count)
system.cpu.commitStats0.committedInstType::SimdUnitStrideMaskLoad            0      0.00%     94.79% # Class of committed instruction. (Count)
system.cpu.commitStats0.committedInstType::SimdUnitStrideMaskStore            0      0.00%     94.79% # Class of committed instruction. (Count)
system.cpu.commitStats0.committedInstType::SimdStridedLoad        20480      2.60%     97.40% # Class of committed instruction. (Count)
system.cpu.commitStats0.committedInstType::SimdStridedStore        20480      2.60%    100.00% # Class of committed instruction. (Count)
system.cpu.commitStats0.committedInstType::SimdIndexedLoad            0      0.00%    100.00% # Class of committed instruction. (Count)
system.cpu.commitStats0.committedInstType::SimdIndexedStore            0      0.00%    100.00% # Class of committed instruction. (Count)
system.cpu.commitStats0.committedInstType::SimdWholeRegisterLoad            3      0.00%    100.00% # Class of committed instruction. (Count)
system.cpu.commitStats0.committedInstType::SimdWholeRegisterStore            3      0.00%    100.00% # Class of committed instruction. (Count)
system.cpu.commitStats0.committedInstType::SimdUnitStrideFaultOnlyFirstLoad            0      0.00%    100.00% # Class of committed instruction. (Count)
system.cpu.commitStats0.committedInstType::SimdUnitStrideSegmentedLoad            0      0.00%    100.00% # Class of committed instruction. (Count)
system.cpu.commitStats0.committedInstType::SimdUnitStrideSegmentedStore            0      0.00%    100.00% # Class of committed instruction. (Count)
system.cpu.commitStats0.committedInstType::SimdExt            0      0.00%    100.00% # Class of committed instruction. (Count)
system.cpu.commitStats0.committedInstType::SimdFloatExt            0      0.00%    100.00% # Class of committed instruction. (Count)
system.cpu.commitStats0.committedInstType::SimdConfig           16      0.00%    100.00% # Class of committed instruction. (Count)
system.cpu.commitStats0.committedInstType::total       787286                       # Class of committed instruction. (Count)
system.cpu.commitStats0.committedControl::IsControl       122826                       # Class of control type instructions committed (Count)
system.cpu.commitStats0.committedControl::IsDirectControl       122511                       # Class of control type instructions committed (Count)
system.cpu.commitStats0.committedControl::IsIndirectControl          315                       # Class of control type instructions committed (Count)
system.cpu.commitStats0.committedControl::IsCondControl        97157                       # Class of control type instructions committed (Count)
system.cpu.commitStats0.committedControl::IsUncondControl        25669                       # Class of control type instructions committed (Count)
system.cpu.commitStats0.committedControl::IsCall          218                       # Class of control type instructions committed (Count)
system.cpu.commitStats0.committedControl::IsReturn          214                       # Class of control type instructions committed (Count)
system.cpu.dcache.demandHits::cpu.data         161596                       # number of demand (read+write) hits (Count)
system.cpu.dcache.demandHits::total            161596                       # number of demand (read+write) hits (Count)
system.cpu.dcache.overallHits::cpu.data        161596                       # number of overall hits (Count)
system.cpu.dcache.overallHits::total           161596                       # number of overall hits (Count)
system.cpu.dcache.demandMisses::cpu.data         1569                       # number of demand (read+write) misses (Count)
system.cpu.dcache.demandMisses::total            1569                       # number of demand (read+write) misses (Count)
system.cpu.dcache.overallMisses::cpu.data         1569                       # number of overall misses (Count)
system.cpu.dcache.overallMisses::total           1569                       # number of overall misses (Count)
system.cpu.dcache.demandMissLatency::cpu.data     94025000                       # number of demand (read+write) miss ticks (Tick)
system.cpu.dcache.demandMissLatency::total     94025000                       # number of demand (read+write) miss ticks (Tick)
system.cpu.dcache.overallMissLatency::cpu.data     94025000                       # number of overall miss ticks (Tick)
system.cpu.dcache.overallMissLatency::total     94025000                       # number of overall miss ticks (Tick)
system.cpu.dcache.demandAccesses::cpu.data       163165                       # number of demand (read+write) accesses (Count)
system.cpu.dcache.demandAccesses::total        163165                       # number of demand (read+write) accesses (Count)
system.cpu.dcache.overallAccesses::cpu.data       163165                       # number of overall (read+write) accesses (Count)
system.cpu.dcache.overallAccesses::total       163165                       # number of overall (read+write) accesses (Count)
system.cpu.dcache.demandMissRate::cpu.data     0.009616                       # miss rate for demand accesses (Ratio)
system.cpu.dcache.demandMissRate::total      0.009616                       # miss rate for demand accesses (Ratio)
system.cpu.dcache.overallMissRate::cpu.data     0.009616                       # miss rate for overall accesses (Ratio)
system.cpu.dcache.overallMissRate::total     0.009616                       # miss rate for overall accesses (Ratio)
system.cpu.dcache.demandAvgMissLatency::cpu.data 59926.704908                       # average overall miss latency in ticks ((Tick/Count))
system.cpu.dcache.demandAvgMissLatency::total 59926.704908                       # average overall miss latency in ticks ((Tick/Count))
system.cpu.dcache.overallAvgMissLatency::cpu.data 59926.704908                       # average overall miss latency ((Tick/Count))
system.cpu.dcache.overallAvgMissLatency::total 59926.704908                       # average overall miss latency ((Tick/Count))
system.cpu.dcache.blockedCycles::no_mshrs            0                       # number of cycles access was blocked (Cycle)
system.cpu.dcache.blockedCycles::no_targets           57                       # number of cycles access was blocked (Cycle)
system.cpu.dcache.blockedCauses::no_mshrs            0                       # number of times access was blocked (Count)
system.cpu.dcache.blockedCauses::no_targets            1                       # number of times access was blocked (Count)
system.cpu.dcache.avgBlocked::no_mshrs            nan                       # average number of cycles each access was blocked ((Cycle/Count))
system.cpu.dcache.avgBlocked::no_targets           57                       # average number of cycles each access was blocked ((Cycle/Count))
[...]
system.mem_ctrl.dram.bytesRead::l2cache.prefetcher       148864                       # Number of bytes read from this memory (Byte)
system.mem_ctrl.dram.bytesRead::total          169600                       # Number of bytes read from this memory (Byte)
system.mem_ctrl.dram.bytesInstRead::cpu.inst         9728                       # Number of instructions bytes read from this memory (Byte)
system.mem_ctrl.dram.bytesInstRead::total         9728                       # Number of instructions bytes read from this memory (Byte)
system.mem_ctrl.dram.numReads::cpu.inst            76                       # Number of read requests responded to by this memory (Count)
system.mem_ctrl.dram.numReads::cpu.data            79                       # Number of read requests responded to by this memory (Count)
system.mem_ctrl.dram.numReads::cpu.dcache.prefetcher            7                       # Number of read requests responded to by this memory (Count)
system.mem_ctrl.dram.numReads::l2cache.prefetcher         1163                       # Number of read requests responded to by this memory (Count)
system.mem_ctrl.dram.numReads::total             1325                       # Number of read requests responded to by this memory (Count)
system.mem_ctrl.dram.bwRead::cpu.inst        18621175                       # Total read bandwidth from this memory ((Byte/Second))
system.mem_ctrl.dram.bwRead::cpu.data        19356222                       # Total read bandwidth from this memory ((Byte/Second))
system.mem_ctrl.dram.bwRead::cpu.dcache.prefetcher      1715108                       # Total read bandwidth from this memory ((Byte/Second))
system.mem_ctrl.dram.bwRead::l2cache.prefetcher    284952988                       # Total read bandwidth from this memory ((Byte/Second))
system.mem_ctrl.dram.bwRead::total          324645493                       # Total read bandwidth from this memory ((Byte/Second))
system.mem_ctrl.dram.bwInstRead::cpu.inst     18621175                       # Instruction read bandwidth from this memory ((Byte/Second))
system.mem_ctrl.dram.bwInstRead::total       18621175                       # Instruction read bandwidth from this memory ((Byte/Second))
system.mem_ctrl.dram.bwTotal::cpu.inst       18621175                       # Total bandwidth to/from this memory ((Byte/Second))
system.mem_ctrl.dram.bwTotal::cpu.data       19356222                       # Total bandwidth to/from this memory ((Byte/Second))
system.mem_ctrl.dram.bwTotal::cpu.dcache.prefetcher      1715108                       # Total bandwidth to/from this memory ((Byte/Second))
system.mem_ctrl.dram.bwTotal::l2cache.prefetcher    284952988                       # Total bandwidth to/from this memory ((Byte/Second))
system.mem_ctrl.dram.bwTotal::total         324645493                       # Total bandwidth to/from this memory ((Byte/Second))
system.mem_ctrl.dram.readBursts                  2650                       # Number of DRAM read bursts (Count)
system.mem_ctrl.dram.writeBursts                    0                       # Number of DRAM write bursts (Count)
system.mem_ctrl.dram.perBankRdBursts::0           262                       # Per bank write bursts (Count)
system.mem_ctrl.dram.perBankRdBursts::1            82                       # Per bank write bursts (Count)
system.mem_ctrl.dram.perBankRdBursts::2           118                       # Per bank write bursts (Count)
system.mem_ctrl.dram.perBankRdBursts::3           198                       # Per bank write bursts (Count)
system.mem_ctrl.dram.perBankRdBursts::4           214                       # Per bank write bursts (Count)
system.mem_ctrl.dram.perBankRdBursts::5           198                       # Per bank write bursts (Count)
system.mem_ctrl.dram.perBankRdBursts::6           204                       # Per bank write bursts (Count)
system.mem_ctrl.dram.perBankRdBursts::7           236                       # Per bank write bursts (Count)
system.mem_ctrl.dram.perBankRdBursts::8           304                       # Per bank write bursts (Count)
system.mem_ctrl.dram.perBankRdBursts::9           274                       # Per bank write bursts (Count)
system.mem_ctrl.dram.perBankRdBursts::10          146                       # Per bank write bursts (Count)
system.mem_ctrl.dram.perBankRdBursts::11           70                       # Per bank write bursts (Count)
system.mem_ctrl.dram.perBankRdBursts::12          122                       # Per bank write bursts (Count)
system.mem_ctrl.dram.perBankRdBursts::13           46                       # Per bank write bursts (Count)
system.mem_ctrl.dram.perBankRdBursts::14           60                       # Per bank write bursts (Count)
system.mem_ctrl.dram.perBankRdBursts::15          116                       # Per bank write bursts (Count)
system.mem_ctrl.dram.perBankWrBursts::0             0                       # Per bank write bursts (Count)
system.mem_ctrl.dram.perBankWrBursts::1             0                       # Per bank write bursts (Count)
system.mem_ctrl.dram.perBankWrBursts::2             0                       # Per bank write bursts (Count)
system.mem_ctrl.dram.perBankWrBursts::3             0                       # Per bank write bursts (Count)
system.mem_ctrl.dram.perBankWrBursts::4             0                       # Per bank write bursts (Count)
system.mem_ctrl.dram.perBankWrBursts::5             0                       # Per bank write bursts (Count)
system.mem_ctrl.dram.perBankWrBursts::6             0                       # Per bank write bursts (Count)
system.mem_ctrl.dram.perBankWrBursts::7             0                       # Per bank write bursts (Count)
system.mem_ctrl.dram.perBankWrBursts::8             0                       # Per bank write bursts (Count)
system.mem_ctrl.dram.perBankWrBursts::9             0                       # Per bank write bursts (Count)
system.mem_ctrl.dram.perBankWrBursts::10            0                       # Per bank write bursts (Count)
system.mem_ctrl.dram.perBankWrBursts::11            0                       # Per bank write bursts (Count)
system.mem_ctrl.dram.perBankWrBursts::12            0                       # Per bank write bursts (Count)
system.mem_ctrl.dram.perBankWrBursts::13            0                       # Per bank write bursts (Count)
system.mem_ctrl.dram.perBankWrBursts::14            0                       # Per bank write bursts (Count)
system.mem_ctrl.dram.perBankWrBursts::15            0                       # Per bank write bursts (Count)
system.mem_ctrl.dram.totQLat                171547110                       # Total ticks spent queuing (Tick)
system.mem_ctrl.dram.totBusLat               13250000                       # Total ticks spent in databus transfers (Tick)
system.mem_ctrl.dram.totMemAccLat           221234610                       # Total ticks spent from burst creation until serviced by the DRAM (Tick)
system.mem_ctrl.dram.avgQLat                 64734.76                       # Average queueing delay per DRAM burst ((Tick/Count))
system.mem_ctrl.dram.avgBusLat                5000.00                       # Average bus latency per DRAM burst ((Tick/Count))
system.mem_ctrl.dram.avgMemAccLat            83484.76                       # Average memory access latency per DRAM burst ((Tick/Count))
system.mem_ctrl.dram.readRowHits                 2424                       # Number of row buffer hits during reads (Count)
system.mem_ctrl.dram.writeRowHits                   0                       # Number of row buffer hits during writes (Count)
system.mem_ctrl.dram.readRowHitRate             91.47                       # Row buffer hit rate for reads (Ratio)
system.mem_ctrl.dram.writeRowHitRate              nan                       # Row buffer hit rate for writes (Ratio)
system.mem_ctrl.dram.bytesPerActivate::samples          224                       # Bytes accessed per row activation (Byte)
system.mem_ctrl.dram.bytesPerActivate::mean   753.714286                       # Bytes accessed per row activation (Byte)
system.mem_ctrl.dram.bytesPerActivate::gmean   647.075616                       # Bytes accessed per row activation (Byte)
system.mem_ctrl.dram.bytesPerActivate::stdev   317.980044                       # Bytes accessed per row activation (Byte)
system.mem_ctrl.dram.bytesPerActivate::128-255           19      8.48%      8.48% # Bytes accessed per row activation (Byte)
system.mem_ctrl.dram.bytesPerActivate::256-383           15      6.70%     15.18% # Bytes accessed per row activation (Byte)
system.mem_ctrl.dram.bytesPerActivate::384-511           15      6.70%     21.88% # Bytes accessed per row activation (Byte)
system.mem_ctrl.dram.bytesPerActivate::512-639           19      8.48%     30.36% # Bytes accessed per row activation (Byte)
system.mem_ctrl.dram.bytesPerActivate::640-767           15      6.70%     37.05% # Bytes accessed per row activation (Byte)
system.mem_ctrl.dram.bytesPerActivate::768-895           18      8.04%     45.09% # Bytes accessed per row activation (Byte)
system.mem_ctrl.dram.bytesPerActivate::896-1023           18      8.04%     53.12% # Bytes accessed per row activation (Byte)
system.mem_ctrl.dram.bytesPerActivate::1024-1151          105     46.88%    100.00% # Bytes accessed per row activation (Byte)
system.mem_ctrl.dram.bytesPerActivate::total          224                       # Bytes accessed per row activation (Byte)
system.mem_ctrl.dram.dramBytesRead             169600                       # Total bytes read (Byte)
system.mem_ctrl.dram.dramBytesWritten               0                       # Total bytes written (Byte)
system.mem_ctrl.dram.avgRdBW               324.645493                       # Average DRAM read bandwidth in MiBytes/s ((Byte/Second))
system.mem_ctrl.dram.avgWrBW                        0                       # Average DRAM write bandwidth in MiBytes/s ((Byte/Second))
system.mem_ctrl.dram.peakBW                  12800.00                       # Theoretical peak bandwidth in MiByte/s ((Byte/Second))
system.mem_ctrl.dram.busUtil                     2.54                       # Data bus utilization in percentage (Ratio)
system.mem_ctrl.dram.busUtilRead                 2.54                       # Data bus utilization in percentage for reads (Ratio)
system.mem_ctrl.dram.busUtilWrite                0.00                       # Data bus utilization in percentage for writes (Ratio)
system.mem_ctrl.dram.pageHitRate                91.47                       # Row buffer hit rate, read and write combined (Ratio)
system.mem_ctrl.dram.power_state.pwrStateResidencyTicks::UNDEFINED    522416000                       # Cumulative time (in ticks) in various power states (Tick)
system.mem_ctrl.dram.rank0.actEnergy           956760                       # Energy for activate commands per rank (pJ) (Joule)
system.mem_ctrl.dram.rank0.preEnergy           500940                       # Energy for precharge commands per rank (pJ) (Joule)
system.mem_ctrl.dram.rank0.readEnergy        10795680                       # Energy for read commands per rank (pJ) (Joule)
system.mem_ctrl.dram.rank0.writeEnergy              0                       # Energy for write commands per rank (pJ) (Joule)
system.mem_ctrl.dram.rank0.refreshEnergy 41180880.000000                       # Energy for refresh commands per rank (pJ) (Joule)
system.mem_ctrl.dram.rank0.actBackEnergy     62931420                       # Energy for active background per rank (pJ) (Joule)
system.mem_ctrl.dram.rank0.preBackEnergy    147612960                       # Energy for precharge background per rank (pJ) (Joule)
system.mem_ctrl.dram.rank0.actPowerDownEnergy            0                       # Energy for active power-down per rank (pJ) (Joule)
system.mem_ctrl.dram.rank0.prePowerDownEnergy            0                       # Energy for precharge power-down per rank (pJ) (Joule)
system.mem_ctrl.dram.rank0.selfRefreshEnergy            0                       # Energy for self refresh per rank (pJ) (Joule)
system.mem_ctrl.dram.rank0.totalEnergy      263978640                       # Total energy per rank (pJ) (Joule)
system.mem_ctrl.dram.rank0.averagePower    505.303513                       # Core power per rank (mW) (Watt)
system.mem_ctrl.dram.rank0.totalIdleTime            0                       # Total Idle time Per DRAM Rank (Tick)
system.mem_ctrl.dram.rank0.pwrStateTime::IDLE    383125223                       # Time in different power states (Tick)
system.mem_ctrl.dram.rank0.pwrStateTime::REF     17420000                       # Time in different power states (Tick)
system.mem_ctrl.dram.rank0.pwrStateTime::SREF            0                       # Time in different power states (Tick)
system.mem_ctrl.dram.rank0.pwrStateTime::PRE_PDN            0                       # Time in different power states (Tick)
system.mem_ctrl.dram.rank0.pwrStateTime::ACT    121870777                       # Time in different power states (Tick)
system.mem_ctrl.dram.rank0.pwrStateTime::ACT_PDN            0                       # Time in different power states (Tick)
system.mem_ctrl.dram.rank1.actEnergy           656880                       # Energy for activate commands per rank (pJ) (Joule)
system.mem_ctrl.dram.rank1.preEnergy           349140                       # Energy for precharge commands per rank (pJ) (Joule)
system.mem_ctrl.dram.rank1.readEnergy         8125320                       # Energy for read commands per rank (pJ) (Joule)
system.mem_ctrl.dram.rank1.writeEnergy              0                       # Energy for write commands per rank (pJ) (Joule)
system.mem_ctrl.dram.rank1.refreshEnergy 41180880.000000                       # Energy for refresh commands per rank (pJ) (Joule)
system.mem_ctrl.dram.rank1.actBackEnergy     48020790                       # Energy for active background per rank (pJ) (Joule)
system.mem_ctrl.dram.rank1.preBackEnergy    160169280                       # Energy for precharge background per rank (pJ) (Joule)
system.mem_ctrl.dram.rank1.actPowerDownEnergy            0                       # Energy for active power-down per rank (pJ) (Joule)
system.mem_ctrl.dram.rank1.prePowerDownEnergy            0                       # Energy for precharge power-down per rank (pJ) (Joule)
system.mem_ctrl.dram.rank1.selfRefreshEnergy            0                       # Energy for self refresh per rank (pJ) (Joule)
system.mem_ctrl.dram.rank1.totalEnergy      258502290                       # Total energy per rank (pJ) (Joule)
system.mem_ctrl.dram.rank1.averagePower    494.820775                       # Core power per rank (mW) (Watt)
system.mem_ctrl.dram.rank1.totalIdleTime            0                       # Total Idle time Per DRAM Rank (Tick)
system.mem_ctrl.dram.rank1.pwrStateTime::IDLE    415986948                       # Time in different power states (Tick)
system.mem_ctrl.dram.rank1.pwrStateTime::REF     17420000                       # Time in different power states (Tick)
system.mem_ctrl.dram.rank1.pwrStateTime::SREF            0                       # Time in different power states (Tick)
system.mem_ctrl.dram.rank1.pwrStateTime::PRE_PDN            0                       # Time in different power states (Tick)
system.mem_ctrl.dram.rank1.pwrStateTime::ACT     89009052                       # Time in different power states (Tick)
system.mem_ctrl.dram.rank1.pwrStateTime::ACT_PDN            0                       # Time in different power states (Tick)
system.mem_ctrl.power_state.pwrStateResidencyTicks::UNDEFINED    522416000                       # Cumulative time (in ticks) in various power states (Tick)
system.membus.transDist::ReadResp                1285                       # Transaction distribution (Count)
system.membus.transDist::ReadExReq                 39                       # Transaction distribution (Count)
system.membus.transDist::ReadExResp                39                       # Transaction distribution (Count)
system.membus.transDist::ReadSharedReq           1286                       # Transaction distribution (Count)
system.membus.pktCount_system.l3cache.mem_side_port::system.mem_ctrl.port         2649                       # Packet count per connected requestor and responder (Count)
system.membus.pktCount::total                    2649                       # Packet count per connected requestor and responder (Count)
system.membus.pktSize_system.l3cache.mem_side_port::system.mem_ctrl.port       169472                       # Cumulative packet size per connected requestor and responder (Byte)
system.membus.pktSize::total                   169472                       # Cumulative packet size per connected requestor and responder (Byte)
system.membus.snoops                                0                       # Total snoops (Count)
system.membus.snoopTraffic                          0                       # Total snoop traffic (Byte)
system.membus.snoopFanout::samples               1494                       # Request fanout histogram (Count)
system.membus.snoopFanout::mean                     0                       # Request fanout histogram (Count)
system.membus.snoopFanout::stdev                    0                       # Request fanout histogram (Count)
system.membus.snoopFanout::underflows               0      0.00%      0.00% # Request fanout histogram (Count)
system.membus.snoopFanout::0                     1494    100.00%    100.00% # Request fanout histogram (Count)
system.membus.snoopFanout::1                        0      0.00%    100.00% # Request fanout histogram (Count)
system.membus.snoopFanout::overflows                0      0.00%    100.00% # Request fanout histogram (Count)
system.membus.snoopFanout::min_value                0                       # Request fanout histogram (Count)
system.membus.snoopFanout::max_value                0                       # Request fanout histogram (Count)
system.membus.snoopFanout::total                 1494                       # Request fanout histogram (Count)
system.membus.power_state.pwrStateResidencyTicks::UNDEFINED    522416000                       # Cumulative time (in ticks) in various power states (Tick)
system.membus.reqLayer0.occupancy             1584247                       # Layer occupancy (ticks) (Tick)
system.membus.reqLayer0.utilization               0.0                       # Layer utilization (Ratio)
system.membus.respLayer0.occupancy           12457708                       # Layer occupancy (ticks) (Tick)
system.membus.respLayer0.utilization              0.0                       # Layer utilization (Ratio)
system.membus.snoop_filter.totRequests           1494                       # Total number of requests made to the snoop filter. (Count)
system.membus.snoop_filter.hitSingleRequests            0                       # Number of requests hitting in the snoop filter with a single holder of the requested data. (Count)
system.membus.snoop_filter.hitMultiRequests            0                       # Number of requests hitting in the snoop filter with multiple (>1) holders of the requested data. (Count)
system.membus.snoop_filter.totSnoops                0                       # Total number of snoops made to the snoop filter. (Count)
system.membus.snoop_filter.hitSingleSnoops            0                       # Number of snoops hitting in the snoop filter with a single holder of the requested data. (Count)
system.membus.snoop_filter.hitMultiSnoops            0                       # Number of snoops hitting in the snoop filter with multiple (>1) holders of the requested data. (Count)
system.workload.inst.arm                            0                       # number of arm instructions executed (Count)
system.workload.inst.quiesce                        0                       # number of quiesce instructions executed (Count)

---------- End Simulation Statistics   ----------
